data/nesta/nesta_case73_ieee_rts.m
%%%%%%%%%%%%%%%%%%%%%%%%%%%%%%%%%%%%%%%%%%%%%%%%%%%%%%%%%%%%%%%%%%%%%%%%%%%
%%%%                                                                  %%%%%
%%%%      NICTA Energy System Test Case Archive (NESTA) - v0.1.5      %%%%%
%%%%              Optimal Power Flow - Typical Operation              %%%%%
%%%%                       30 - October - 2014                        %%%%%
%%%%                                                                  %%%%%
%%%%%%%%%%%%%%%%%%%%%%%%%%%%%%%%%%%%%%%%%%%%%%%%%%%%%%%%%%%%%%%%%%%%%%%%%%%
%
%   Power flow data for the IEEE RELIABILITY TEST SYSTEM 1996.
%
%   IEEE Reliability Test System Task Force of Applications of
%   Probability Methods Subcommittee, "IEEE reliability test system-96,"
%   IEEE Transactions on Power Systems, Vol. 14, No. 3, Aug. 1999,
%   pp. 1010-1020.
%
%   See also (this network is three replicates of the RTS-79 system):
%   IEEE Reliability Test System Task Force of the Applications of
%   Probability Methods Subcommittee, "IEEE reliability test system,"
%   IEEE Transactions on Power Apparatus and Systems, Vol. 98, No. 6,
%   Nov./Dec. 1979, pp. 2047-2054.
%
%   Cost data is from Web site run by Georgia Tech Power Systems Control
%   and Automation Laboratory:
%       http://pscal.ece.gatech.edu/testsys/index.html
%
%   Converted from data files on:
%       http://www.ee.washington.edu/research/pstca/rts/pg_tcarts.htm
%
%   Does not include optional DC link
%   Bus voltage bounds from Matpower standard +/- 6% off nominal
%   Reactive compensation at buses 106, 206, 306 is essential for feasibility due to 
%   line charging on branch 6-10.  A shunt of 100 MVar is indicated in the RTS-79 paper.
%
%   Matpower case file data provided by Clayton Barrows, Carleton Coffrin, 
%   and NICTA's Optisation Research Group.
%
function mpc = nesta_case73_ieee_rts
mpc.version = '2';
mpc.baseMVA = 100.0;

%% area data
%	area	refbus
mpc.areas = [
	1	 101;
	2	 201;
	3	 301;
];

%% bus data
%	bus_i	type	Pd	Qd	Gs	Bs	area	Vm	Va	baseKV	zone	Vmax	Vmin
mpc.bus = [
	101	 2	 108.0	 22.0	 0.0	 0.0	 1	     1.0000	     0.0000	 138.0	 1	     1.0500	     0.9500;
	102	 2	 97.0	 20.0	 0.0	 0.0	 1	     1.0000	     0.0000	 138.0	 1	     1.0500	     0.9500;
	103	 1	 180.0	 37.0	 0.0	 0.0	 1	     1.0000	     0.0000	 138.0	 1	     1.0500	     0.9500;
	104	 1	 74.0	 15.0	 0.0	 0.0	 1	     1.0000	     0.0000	 138.0	 1	     1.0500	     0.9500;
	105	 1	 71.0	 14.0	 0.0	 0.0	 1	     1.0000	     0.0000	 138.0	 1	     1.0500	     0.9500;
	106	 1	 136.0	 28.0	 0.0	 -100.0	 1	     1.0000	     0.0000	 138.0	 1	     1.0500	     0.9500;
	107	 2	 125.0	 25.0	 0.0	 0.0	 1	     1.0000	     0.0000	 138.0	 1	     1.0500	     0.9500;
	108	 1	 171.0	 35.0	 0.0	 0.0	 1	     1.0000	     0.0000	 138.0	 1	     1.0500	     0.9500;
	109	 1	 175.0	 36.0	 0.0	 0.0	 1	     1.0000	     0.0000	 138.0	 1	     1.0500	     0.9500;
	110	 1	 195.0	 40.0	 0.0	 0.0	 1	     1.0000	     0.0000	 138.0	 1	     1.0500	     0.9500;
	111	 1	 0.0	 0.0	 0.0	 0.0	 1	     1.0000	     0.0000	 230.0	 1	     1.0500	     0.9500;
	112	 1	 0.0	 0.0	 0.0	 0.0	 1	     1.0000	     0.0000	 230.0	 1	     1.0500	     0.9500;
	113	 3	 265.0	 54.0	 0.0	 0.0	 1	     1.0000	     0.0000	 230.0	 1	     1.0500	     0.9500;
	114	 2	 194.0	 39.0	 0.0	 0.0	 1	     1.0000	     0.0000	 230.0	 1	     1.0500	     0.9500;
	115	 2	 317.0	 64.0	 0.0	 0.0	 1	     1.0000	     0.0000	 230.0	 1	     1.0500	     0.9500;
	116	 2	 100.0	 20.0	 0.0	 0.0	 1	     1.0000	     0.0000	 230.0	 1	     1.0500	     0.9500;
	117	 1	 0.0	 0.0	 0.0	 0.0	 1	     1.0000	     0.0000	 230.0	 1	     1.0500	     0.9500;
	118	 2	 333.0	 68.0	 0.0	 0.0	 1	     1.0000	     0.0000	 230.0	 1	     1.0500	     0.9500;
	119	 1	 181.0	 37.0	 0.0	 0.0	 1	     1.0000	     0.0000	 230.0	 1	     1.0500	     0.9500;
	120	 1	 128.0	 26.0	 0.0	 0.0	 1	     1.0000	     0.0000	 230.0	 1	     1.0500	     0.9500;
	121	 2	 0.0	 0.0	 0.0	 0.0	 1	     1.0000	     0.0000	 230.0	 1	     1.0500	     0.9500;
	122	 2	 0.0	 0.0	 0.0	 0.0	 1	     1.0000	     0.0000	 230.0	 1	     1.0500	     0.9500;
	123	 2	 0.0	 0.0	 0.0	 0.0	 1	     1.0000	     0.0000	 230.0	 1	     1.0500	     0.9500;
	124	 1	 0.0	 0.0	 0.0	 0.0	 1	     1.0000	     0.0000	 230.0	 1	     1.0500	     0.9500;
	201	 2	 108.0	 22.0	 0.0	 0.0	 2	     1.0000	     0.0000	 138.0	 2	     1.0500	     0.9500;
	202	 2	 97.0	 20.0	 0.0	 0.0	 2	     1.0000	     0.0000	 138.0	 2	     1.0500	     0.9500;
	203	 1	 180.0	 37.0	 0.0	 0.0	 2	     1.0000	     0.0000	 138.0	 2	     1.0500	     0.9500;
	204	 1	 74.0	 15.0	 0.0	 0.0	 2	     1.0000	     0.0000	 138.0	 2	     1.0500	     0.9500;
	205	 1	 71.0	 14.0	 0.0	 0.0	 2	     1.0000	     0.0000	 138.0	 2	     1.0500	     0.9500;
	206	 1	 136.0	 28.0	 0.0	 -100.0	 2	     1.0000	     0.0000	 138.0	 2	     1.0500	     0.9500;
	207	 2	 125.0	 25.0	 0.0	 0.0	 2	     1.0000	     0.0000	 138.0	 2	     1.0500	     0.9500;
	208	 1	 171.0	 35.0	 0.0	 0.0	 2	     1.0000	     0.0000	 138.0	 2	     1.0500	     0.9500;
	209	 1	 175.0	 36.0	 0.0	 0.0	 2	     1.0000	     0.0000	 138.0	 2	     1.0500	     0.9500;
	210	 1	 195.0	 40.0	 0.0	 0.0	 2	     1.0000	     0.0000	 138.0	 2	     1.0500	     0.9500;
	211	 1	 0.0	 0.0	 0.0	 0.0	 2	     1.0000	     0.0000	 230.0	 2	     1.0500	     0.9500;
	212	 1	 0.0	 0.0	 0.0	 0.0	 2	     1.0000	     0.0000	 230.0	 2	     1.0500	     0.9500;
	213	 2	 265.0	 54.0	 0.0	 0.0	 2	     1.0000	     0.0000	 230.0	 2	     1.0500	     0.9500;
	214	 2	 194.0	 39.0	 0.0	 0.0	 2	     1.0000	     0.0000	 230.0	 2	     1.0500	     0.9500;
	215	 2	 317.0	 64.0	 0.0	 0.0	 2	     1.0000	     0.0000	 230.0	 2	     1.0500	     0.9500;
	216	 2	 100.0	 20.0	 0.0	 0.0	 2	     1.0000	     0.0000	 230.0	 2	     1.0500	     0.9500;
	217	 1	 0.0	 0.0	 0.0	 0.0	 2	     1.0000	     0.0000	 230.0	 2	     1.0500	     0.9500;
	218	 2	 333.0	 68.0	 0.0	 0.0	 2	     1.0000	     0.0000	 230.0	 2	     1.0500	     0.9500;
	219	 1	 181.0	 37.0	 0.0	 0.0	 2	     1.0000	     0.0000	 230.0	 2	     1.0500	     0.9500;
	220	 1	 128.0	 26.0	 0.0	 0.0	 2	     1.0000	     0.0000	 230.0	 2	     1.0500	     0.9500;
	221	 2	 0.0	 0.0	 0.0	 0.0	 2	     1.0000	     0.0000	 230.0	 2	     1.0500	     0.9500;
	222	 2	 0.0	 0.0	 0.0	 0.0	 2	     1.0000	     0.0000	 230.0	 2	     1.0500	     0.9500;
	223	 2	 0.0	 0.0	 0.0	 0.0	 2	     1.0000	     0.0000	 230.0	 2	     1.0500	     0.9500;
	224	 1	 0.0	 0.0	 0.0	 0.0	 2	     1.0000	     0.0000	 230.0	 2	     1.0500	     0.9500;
	301	 2	 108.0	 22.0	 0.0	 0.0	 3	     1.0000	     0.0000	 138.0	 3	     1.0500	     0.9500;
	302	 2	 97.0	 20.0	 0.0	 0.0	 3	     1.0000	     0.0000	 138.0	 3	     1.0500	     0.9500;
	303	 1	 180.0	 37.0	 0.0	 0.0	 3	     1.0000	     0.0000	 138.0	 3	     1.0500	     0.9500;
	304	 1	 74.0	 15.0	 0.0	 0.0	 3	     1.0000	     0.0000	 138.0	 3	     1.0500	     0.9500;
	305	 1	 71.0	 14.0	 0.0	 0.0	 3	     1.0000	     0.0000	 138.0	 3	     1.0500	     0.9500;
	306	 1	 136.0	 28.0	 0.0	 -100.0	 3	     1.0000	     0.0000	 138.0	 3	     1.0500	     0.9500;
	307	 2	 125.0	 25.0	 0.0	 0.0	 3	     1.0000	     0.0000	 138.0	 3	     1.0500	     0.9500;
	308	 1	 171.0	 35.0	 0.0	 0.0	 3	     1.0000	     0.0000	 138.0	 3	     1.0500	     0.9500;
	309	 1	 175.0	 36.0	 0.0	 0.0	 3	     1.0000	     0.0000	 138.0	 3	     1.0500	     0.9500;
	310	 1	 195.0	 40.0	 0.0	 0.0	 3	     1.0000	     0.0000	 138.0	 3	     1.0500	     0.9500;
	311	 1	 0.0	 0.0	 0.0	 0.0	 3	     1.0000	     0.0000	 230.0	 3	     1.0500	     0.9500;
	312	 1	 0.0	 0.0	 0.0	 0.0	 3	     1.0000	     0.0000	 230.0	 3	     1.0500	     0.9500;
	313	 2	 265.0	 54.0	 0.0	 0.0	 3	     1.0000	     0.0000	 230.0	 3	     1.0500	     0.9500;
	314	 2	 194.0	 39.0	 0.0	 0.0	 3	     1.0000	     0.0000	 230.0	 3	     1.0500	     0.9500;
	315	 2	 317.0	 64.0	 0.0	 0.0	 3	     1.0000	     0.0000	 230.0	 3	     1.0500	     0.9500;
	316	 2	 100.0	 20.0	 0.0	 0.0	 3	     1.0000	     0.0000	 230.0	 3	     1.0500	     0.9500;
	317	 1	 0.0	 0.0	 0.0	 0.0	 3	     1.0000	     0.0000	 230.0	 3	     1.0500	     0.9500;
	318	 2	 333.0	 68.0	 0.0	 0.0	 3	     1.0000	     0.0000	 230.0	 3	     1.0500	     0.9500;
	319	 1	 181.0	 37.0	 0.0	 0.0	 3	     1.0000	     0.0000	 230.0	 3	     1.0500	     0.9500;
	320	 1	 128.0	 26.0	 0.0	 0.0	 3	     1.0000	     0.0000	 230.0	 3	     1.0500	     0.9500;
	321	 2	 0.0	 0.0	 0.0	 0.0	 3	     1.0000	     0.0000	 230.0	 3	     1.0500	     0.9500;
	322	 2	 0.0	 0.0	 0.0	 0.0	 3	     1.0000	     0.0000	 230.0	 3	     1.0500	     0.9500;
	323	 2	 0.0	 0.0	 0.0	 0.0	 3	     1.0000	     0.0000	 230.0	 3	     1.0500	     0.9500;
	324	 1	 0.0	 0.0	 0.0	 0.0	 3	     1.0000	     0.0000	 230.0	 3	     1.0500	     0.9500;
	325	 1	 0.0	 0.0	 0.0	 0.0	 3	     1.0000	     0.0000	 230.0	 3	     1.0500	     0.9500;
];

%% generator data
%	bus	Pg	Qg	Qmax	Qmin	Vg	mBase	status	Pmax	Pmin	Pc1	Pc2	Qc1min	Qc1max	Qc2min	Qc2max	ramp_agc	ramp_10	ramp_30	ramp_q	apf
mpc.gen = [
	101	 10.0	 0.0	 10.0	 0.0	 1.035	 100.0	 1	 20.0	 16.0	 0.0	 0.0	 0.0	 0.0	 0.0	 0.0	 0.0	 0.0	 0.0	 0.0	 0.0;
	101	 10.0	 0.0	 10.0	 0.0	 1.035	 100.0	 1	 20.0	 16.0	 0.0	 0.0	 0.0	 0.0	 0.0	 0.0	 0.0	 0.0	 0.0	 0.0	 0.0;
	101	 76.0	 14.1	 30.0	 -25.0	 1.035	 100.0	 1	 76.0	 15.2	 0.0	 0.0	 0.0	 0.0	 0.0	 0.0	 0.0	 0.0	 0.0	 0.0	 0.0;
	101	 76.0	 14.1	 30.0	 -25.0	 1.035	 100.0	 1	 76.0	 15.2	 0.0	 0.0	 0.0	 0.0	 0.0	 0.0	 0.0	 0.0	 0.0	 0.0	 0.0;
	102	 10.0	 0.0	 10.0	 0.0	 1.035	 100.0	 1	 20.0	 16.0	 0.0	 0.0	 0.0	 0.0	 0.0	 0.0	 0.0	 0.0	 0.0	 0.0	 0.0;
	102	 10.0	 0.0	 10.0	 0.0	 1.035	 100.0	 1	 20.0	 16.0	 0.0	 0.0	 0.0	 0.0	 0.0	 0.0	 0.0	 0.0	 0.0	 0.0	 0.0;
	102	 76.0	 7.0	 30.0	 -25.0	 1.035	 100.0	 1	 76.0	 15.2	 0.0	 0.0	 0.0	 0.0	 0.0	 0.0	 0.0	 0.0	 0.0	 0.0	 0.0;
	102	 76.0	 7.0	 30.0	 -25.0	 1.035	 100.0	 1	 76.0	 15.2	 0.0	 0.0	 0.0	 0.0	 0.0	 0.0	 0.0	 0.0	 0.0	 0.0	 0.0;
	107	 80.0	 17.2	 60.0	 0.0	 1.025	 100.0	 1	 100.0	 25.0	 0.0	 0.0	 0.0	 0.0	 0.0	 0.0	 0.0	 0.0	 0.0	 0.0	 0.0;
	107	 80.0	 17.2	 60.0	 0.0	 1.025	 100.0	 1	 100.0	 25.0	 0.0	 0.0	 0.0	 0.0	 0.0	 0.0	 0.0	 0.0	 0.0	 0.0	 0.0;
	107	 80.0	 17.2	 60.0	 0.0	 1.025	 100.0	 1	 100.0	 25.0	 0.0	 0.0	 0.0	 0.0	 0.0	 0.0	 0.0	 0.0	 0.0	 0.0	 0.0;
	113	 95.1	 40.7	 80.0	 0.0	 1.02	 100.0	 1	 197.0	 69.0	 0.0	 0.0	 0.0	 0.0	 0.0	 0.0	 0.0	 0.0	 0.0	 0.0	 0.0;
	113	 95.1	 40.7	 80.0	 0.0	 1.02	 100.0	 1	 197.0	 69.0	 0.0	 0.0	 0.0	 0.0	 0.0	 0.0	 0.0	 0.0	 0.0	 0.0	 0.0;
	113	 95.1	 40.7	 80.0	 0.0	 1.02	 100.0	 1	 197.0	 69.0	 0.0	 0.0	 0.0	 0.0	 0.0	 0.0	 0.0	 0.0	 0.0	 0.0	 0.0;
	114	 0.0	 13.7	 200.0	 -50.0	 0.98	 100.0	 1	 0.0	 0.0	 0.0	 0.0	 0.0	 0.0	 0.0	 0.0	 0.0	 0.0	 0.0	 0.0	 0.0;
	115	 12.0	 0.0	 6.0	 0.0	 1.014	 100.0	 1	 12.0	 2.4	 0.0	 0.0	 0.0	 0.0	 0.0	 0.0	 0.0	 0.0	 0.0	 0.0	 0.0;
	115	 12.0	 0.0	 6.0	 0.0	 1.014	 100.0	 1	 12.0	 2.4	 0.0	 0.0	 0.0	 0.0	 0.0	 0.0	 0.0	 0.0	 0.0	 0.0	 0.0;
	115	 12.0	 0.0	 6.0	 0.0	 1.014	 100.0	 1	 12.0	 2.4	 0.0	 0.0	 0.0	 0.0	 0.0	 0.0	 0.0	 0.0	 0.0	 0.0	 0.0;
	115	 12.0	 0.0	 6.0	 0.0	 1.014	 100.0	 1	 12.0	 2.4	 0.0	 0.0	 0.0	 0.0	 0.0	 0.0	 0.0	 0.0	 0.0	 0.0	 0.0;
	115	 12.0	 0.0	 6.0	 0.0	 1.014	 100.0	 1	 12.0	 2.4	 0.0	 0.0	 0.0	 0.0	 0.0	 0.0	 0.0	 0.0	 0.0	 0.0	 0.0;
	115	 155.0	 0.05	 80.0	 -50.0	 1.014	 100.0	 1	 155.0	 54.3	 0.0	 0.0	 0.0	 0.0	 0.0	 0.0	 0.0	 0.0	 0.0	 0.0	 0.0;
	116	 155.0	 25.22	 80.0	 -50.0	 1.017	 100.0	 1	 155.0	 54.3	 0.0	 0.0	 0.0	 0.0	 0.0	 0.0	 0.0	 0.0	 0.0	 0.0	 0.0;
	118	 400.0	 137.4	 200.0	 -50.0	 1.05	 100.0	 1	 400.0	 100.0	 0.0	 0.0	 0.0	 0.0	 0.0	 0.0	 0.0	 0.0	 0.0	 0.0	 0.0;
	121	 400.0	 108.2	 200.0	 -50.0	 1.05	 100.0	 1	 400.0	 100.0	 0.0	 0.0	 0.0	 0.0	 0.0	 0.0	 0.0	 0.0	 0.0	 0.0	 0.0;
	122	 50.0	 -4.96	 16.0	 -10.0	 1.05	 100.0	 1	 50.0	 10.0	 0.0	 0.0	 0.0	 0.0	 0.0	 0.0	 0.0	 0.0	 0.0	 0.0	 0.0;
	122	 50.0	 -4.96	 16.0	 -10.0	 1.05	 100.0	 1	 50.0	 10.0	 0.0	 0.0	 0.0	 0.0	 0.0	 0.0	 0.0	 0.0	 0.0	 0.0	 0.0;
	122	 50.0	 -4.96	 16.0	 -10.0	 1.05	 100.0	 1	 50.0	 10.0	 0.0	 0.0	 0.0	 0.0	 0.0	 0.0	 0.0	 0.0	 0.0	 0.0	 0.0;
	122	 50.0	 -4.96	 16.0	 -10.0	 1.05	 100.0	 1	 50.0	 10.0	 0.0	 0.0	 0.0	 0.0	 0.0	 0.0	 0.0	 0.0	 0.0	 0.0	 0.0;
	122	 50.0	 -4.96	 16.0	 -10.0	 1.05	 100.0	 1	 50.0	 10.0	 0.0	 0.0	 0.0	 0.0	 0.0	 0.0	 0.0	 0.0	 0.0	 0.0	 0.0;
	122	 50.0	 -4.96	 16.0	 -10.0	 1.05	 100.0	 1	 50.0	 10.0	 0.0	 0.0	 0.0	 0.0	 0.0	 0.0	 0.0	 0.0	 0.0	 0.0	 0.0;
	123	 155.0	 31.79	 80.0	 -50.0	 1.05	 100.0	 1	 155.0	 54.3	 0.0	 0.0	 0.0	 0.0	 0.0	 0.0	 0.0	 0.0	 0.0	 0.0	 0.0;
	123	 155.0	 31.79	 80.0	 -50.0	 1.05	 100.0	 1	 155.0	 54.3	 0.0	 0.0	 0.0	 0.0	 0.0	 0.0	 0.0	 0.0	 0.0	 0.0	 0.0;
	123	 350.0	 71.78	 150.0	 -25.0	 1.05	 100.0	 1	 350.0	 140.0	 0.0	 0.0	 0.0	 0.0	 0.0	 0.0	 0.0	 0.0	 0.0	 0.0	 0.0;
	201	 10.0	 0.0	 10.0	 0.0	 1.035	 100.0	 1	 20.0	 16.0	 0.0	 0.0	 0.0	 0.0	 0.0	 0.0	 0.0	 0.0	 0.0	 0.0	 0.0;
	201	 10.0	 0.0	 10.0	 0.0	 1.035	 100.0	 1	 20.0	 16.0	 0.0	 0.0	 0.0	 0.0	 0.0	 0.0	 0.0	 0.0	 0.0	 0.0	 0.0;
	201	 76.0	 14.1	 30.0	 -25.0	 1.035	 100.0	 1	 76.0	 15.2	 0.0	 0.0	 0.0	 0.0	 0.0	 0.0	 0.0	 0.0	 0.0	 0.0	 0.0;
	201	 76.0	 14.1	 30.0	 -25.0	 1.035	 100.0	 1	 76.0	 15.2	 0.0	 0.0	 0.0	 0.0	 0.0	 0.0	 0.0	 0.0	 0.0	 0.0	 0.0;
	202	 10.0	 0.0	 10.0	 0.0	 1.035	 100.0	 1	 20.0	 16.0	 0.0	 0.0	 0.0	 0.0	 0.0	 0.0	 0.0	 0.0	 0.0	 0.0	 0.0;
	202	 10.0	 0.0	 10.0	 0.0	 1.035	 100.0	 1	 20.0	 16.0	 0.0	 0.0	 0.0	 0.0	 0.0	 0.0	 0.0	 0.0	 0.0	 0.0	 0.0;
	202	 76.0	 7.0	 30.0	 -25.0	 1.035	 100.0	 1	 76.0	 15.2	 0.0	 0.0	 0.0	 0.0	 0.0	 0.0	 0.0	 0.0	 0.0	 0.0	 0.0;
	202	 76.0	 7.0	 30.0	 -25.0	 1.035	 100.0	 1	 76.0	 15.2	 0.0	 0.0	 0.0	 0.0	 0.0	 0.0	 0.0	 0.0	 0.0	 0.0	 0.0;
	207	 80.0	 17.2	 60.0	 0.0	 1.025	 100.0	 1	 100.0	 25.0	 0.0	 0.0	 0.0	 0.0	 0.0	 0.0	 0.0	 0.0	 0.0	 0.0	 0.0;
	207	 80.0	 17.2	 60.0	 0.0	 1.025	 100.0	 1	 100.0	 25.0	 0.0	 0.0	 0.0	 0.0	 0.0	 0.0	 0.0	 0.0	 0.0	 0.0	 0.0;
	207	 80.0	 17.2	 60.0	 0.0	 1.025	 100.0	 1	 100.0	 25.0	 0.0	 0.0	 0.0	 0.0	 0.0	 0.0	 0.0	 0.0	 0.0	 0.0	 0.0;
	213	 95.1	 40.7	 80.0	 0.0	 1.02	 100.0	 1	 197.0	 69.0	 0.0	 0.0	 0.0	 0.0	 0.0	 0.0	 0.0	 0.0	 0.0	 0.0	 0.0;
	213	 95.1	 40.7	 80.0	 0.0	 1.02	 100.0	 1	 197.0	 69.0	 0.0	 0.0	 0.0	 0.0	 0.0	 0.0	 0.0	 0.0	 0.0	 0.0	 0.0;
	213	 95.1	 40.7	 80.0	 0.0	 1.02	 100.0	 1	 197.0	 69.0	 0.0	 0.0	 0.0	 0.0	 0.0	 0.0	 0.0	 0.0	 0.0	 0.0	 0.0;
	214	 0.0	 13.68	 200.0	 -50.0	 0.98	 100.0	 1	 0.0	 0.0	 0.0	 0.0	 0.0	 0.0	 0.0	 0.0	 0.0	 0.0	 0.0	 0.0	 0.0;
	215	 12.0	 0.0	 6.0	 0.0	 1.014	 100.0	 1	 12.0	 2.4	 0.0	 0.0	 0.0	 0.0	 0.0	 0.0	 0.0	 0.0	 0.0	 0.0	 0.0;
	215	 12.0	 0.0	 6.0	 0.0	 1.014	 100.0	 1	 12.0	 2.4	 0.0	 0.0	 0.0	 0.0	 0.0	 0.0	 0.0	 0.0	 0.0	 0.0	 0.0;
	215	 12.0	 0.0	 6.0	 0.0	 1.014	 100.0	 1	 12.0	 2.4	 0.0	 0.0	 0.0	 0.0	 0.0	 0.0	 0.0	 0.0	 0.0	 0.0	 0.0;
	215	 12.0	 0.0	 6.0	 0.0	 1.014	 100.0	 1	 12.0	 2.4	 0.0	 0.0	 0.0	 0.0	 0.0	 0.0	 0.0	 0.0	 0.0	 0.0	 0.0;
	215	 12.0	 0.0	 6.0	 0.0	 1.014	 100.0	 1	 12.0	 2.4	 0.0	 0.0	 0.0	 0.0	 0.0	 0.0	 0.0	 0.0	 0.0	 0.0	 0.0;
	215	 155.0	 0.048	 80.0	 -50.0	 1.014	 100.0	 1	 155.0	 54.3	 0.0	 0.0	 0.0	 0.0	 0.0	 0.0	 0.0	 0.0	 0.0	 0.0	 0.0;
	216	 155.0	 25.22	 80.0	 -50.0	 1.017	 100.0	 1	 155.0	 54.3	 0.0	 0.0	 0.0	 0.0	 0.0	 0.0	 0.0	 0.0	 0.0	 0.0	 0.0;
	218	 400.0	 137.4	 200.0	 -50.0	 1.05	 100.0	 1	 400.0	 100.0	 0.0	 0.0	 0.0	 0.0	 0.0	 0.0	 0.0	 0.0	 0.0	 0.0	 0.0;
	221	 400.0	 108.2	 200.0	 -50.0	 1.05	 100.0	 1	 400.0	 100.0	 0.0	 0.0	 0.0	 0.0	 0.0	 0.0	 0.0	 0.0	 0.0	 0.0	 0.0;
	222	 50.0	 -4.96	 16.0	 -10.0	 1.05	 100.0	 1	 50.0	 10.0	 0.0	 0.0	 0.0	 0.0	 0.0	 0.0	 0.0	 0.0	 0.0	 0.0	 0.0;
	222	 50.0	 -4.96	 16.0	 -10.0	 1.05	 100.0	 1	 50.0	 10.0	 0.0	 0.0	 0.0	 0.0	 0.0	 0.0	 0.0	 0.0	 0.0	 0.0	 0.0;
	222	 50.0	 -4.96	 16.0	 -10.0	 1.05	 100.0	 1	 50.0	 10.0	 0.0	 0.0	 0.0	 0.0	 0.0	 0.0	 0.0	 0.0	 0.0	 0.0	 0.0;
	222	 50.0	 -4.96	 16.0	 -10.0	 1.05	 100.0	 1	 50.0	 10.0	 0.0	 0.0	 0.0	 0.0	 0.0	 0.0	 0.0	 0.0	 0.0	 0.0	 0.0;
	222	 50.0	 -4.96	 16.0	 -10.0	 1.05	 100.0	 1	 50.0	 10.0	 0.0	 0.0	 0.0	 0.0	 0.0	 0.0	 0.0	 0.0	 0.0	 0.0	 0.0;
	222	 50.0	 -4.96	 16.0	 -10.0	 1.05	 100.0	 1	 50.0	 10.0	 0.0	 0.0	 0.0	 0.0	 0.0	 0.0	 0.0	 0.0	 0.0	 0.0	 0.0;
	223	 155.0	 31.79	 80.0	 -50.0	 1.05	 100.0	 1	 155.0	 54.3	 0.0	 0.0	 0.0	 0.0	 0.0	 0.0	 0.0	 0.0	 0.0	 0.0	 0.0;
	223	 155.0	 31.79	 80.0	 -50.0	 1.05	 100.0	 1	 155.0	 54.3	 0.0	 0.0	 0.0	 0.0	 0.0	 0.0	 0.0	 0.0	 0.0	 0.0	 0.0;
	223	 350.0	 71.78	 150.0	 -25.0	 1.05	 100.0	 1	 350.0	 140.0	 0.0	 0.0	 0.0	 0.0	 0.0	 0.0	 0.0	 0.0	 0.0	 0.0	 0.0;
	301	 10.0	 0.0	 10.0	 0.0	 1.035	 100.0	 1	 20.0	 16.0	 0.0	 0.0	 0.0	 0.0	 0.0	 0.0	 0.0	 0.0	 0.0	 0.0	 0.0;
	301	 10.0	 0.0	 10.0	 0.0	 1.035	 100.0	 1	 20.0	 16.0	 0.0	 0.0	 0.0	 0.0	 0.0	 0.0	 0.0	 0.0	 0.0	 0.0	 0.0;
	301	 76.0	 14.1	 30.0	 -25.0	 1.035	 100.0	 1	 76.0	 15.2	 0.0	 0.0	 0.0	 0.0	 0.0	 0.0	 0.0	 0.0	 0.0	 0.0	 0.0;
	301	 76.0	 14.1	 30.0	 -25.0	 1.035	 100.0	 1	 76.0	 15.2	 0.0	 0.0	 0.0	 0.0	 0.0	 0.0	 0.0	 0.0	 0.0	 0.0	 0.0;
	302	 10.0	 0.0	 10.0	 0.0	 1.035	 100.0	 1	 20.0	 16.0	 0.0	 0.0	 0.0	 0.0	 0.0	 0.0	 0.0	 0.0	 0.0	 0.0	 0.0;
	302	 10.0	 0.0	 10.0	 0.0	 1.035	 100.0	 1	 20.0	 16.0	 0.0	 0.0	 0.0	 0.0	 0.0	 0.0	 0.0	 0.0	 0.0	 0.0	 0.0;
	302	 76.0	 7.0	 30.0	 -25.0	 1.035	 100.0	 1	 76.0	 15.2	 0.0	 0.0	 0.0	 0.0	 0.0	 0.0	 0.0	 0.0	 0.0	 0.0	 0.0;
	302	 76.0	 7.0	 30.0	 -25.0	 1.035	 100.0	 1	 76.0	 15.2	 0.0	 0.0	 0.0	 0.0	 0.0	 0.0	 0.0	 0.0	 0.0	 0.0	 0.0;
	307	 80.0	 17.2	 60.0	 0.0	 1.025	 100.0	 1	 100.0	 25.0	 0.0	 0.0	 0.0	 0.0	 0.0	 0.0	 0.0	 0.0	 0.0	 0.0	 0.0;
	307	 80.0	 17.2	 60.0	 0.0	 1.025	 100.0	 1	 100.0	 25.0	 0.0	 0.0	 0.0	 0.0	 0.0	 0.0	 0.0	 0.0	 0.0	 0.0	 0.0;
	307	 80.0	 17.2	 60.0	 0.0	 1.025	 100.0	 1	 100.0	 25.0	 0.0	 0.0	 0.0	 0.0	 0.0	 0.0	 0.0	 0.0	 0.0	 0.0	 0.0;
	313	 95.1	 40.7	 80.0	 0.0	 1.02	 100.0	 1	 197.0	 69.0	 0.0	 0.0	 0.0	 0.0	 0.0	 0.0	 0.0	 0.0	 0.0	 0.0	 0.0;
	313	 95.1	 40.7	 80.0	 0.0	 1.02	 100.0	 1	 197.0	 69.0	 0.0	 0.0	 0.0	 0.0	 0.0	 0.0	 0.0	 0.0	 0.0	 0.0	 0.0;
	313	 95.1	 40.7	 80.0	 0.0	 1.02	 100.0	 1	 197.0	 69.0	 0.0	 0.0	 0.0	 0.0	 0.0	 0.0	 0.0	 0.0	 0.0	 0.0	 0.0;
	314	 0.0	 13.68	 200.0	 -50.0	 0.98	 100.0	 1	 0.0	 0.0	 0.0	 0.0	 0.0	 0.0	 0.0	 0.0	 0.0	 0.0	 0.0	 0.0	 0.0;
	315	 12.0	 0.0	 6.0	 0.0	 1.014	 100.0	 1	 12.0	 2.4	 0.0	 0.0	 0.0	 0.0	 0.0	 0.0	 0.0	 0.0	 0.0	 0.0	 0.0;
	315	 12.0	 0.0	 6.0	 0.0	 1.014	 100.0	 1	 12.0	 2.4	 0.0	 0.0	 0.0	 0.0	 0.0	 0.0	 0.0	 0.0	 0.0	 0.0	 0.0;
	315	 12.0	 0.0	 6.0	 0.0	 1.014	 100.0	 1	 12.0	 2.4	 0.0	 0.0	 0.0	 0.0	 0.0	 0.0	 0.0	 0.0	 0.0	 0.0	 0.0;
	315	 12.0	 0.0	 6.0	 0.0	 1.014	 100.0	 1	 12.0	 2.4	 0.0	 0.0	 0.0	 0.0	 0.0	 0.0	 0.0	 0.0	 0.0	 0.0	 0.0;
	315	 12.0	 0.0	 6.0	 0.0	 1.014	 100.0	 1	 12.0	 2.4	 0.0	 0.0	 0.0	 0.0	 0.0	 0.0	 0.0	 0.0	 0.0	 0.0	 0.0;
	315	 155.0	 0.048	 80.0	 -50.0	 1.014	 100.0	 1	 155.0	 54.3	 0.0	 0.0	 0.0	 0.0	 0.0	 0.0	 0.0	 0.0	 0.0	 0.0	 0.0;
	316	 155.0	 25.22	 80.0	 -50.0	 1.017	 100.0	 1	 155.0	 54.3	 0.0	 0.0	 0.0	 0.0	 0.0	 0.0	 0.0	 0.0	 0.0	 0.0	 0.0;
	318	 400.0	 137.4	 200.0	 -50.0	 1.05	 100.0	 1	 400.0	 100.0	 0.0	 0.0	 0.0	 0.0	 0.0	 0.0	 0.0	 0.0	 0.0	 0.0	 0.0;
	321	 400.0	 108.2	 200.0	 -50.0	 1.05	 100.0	 1	 400.0	 100.0	 0.0	 0.0	 0.0	 0.0	 0.0	 0.0	 0.0	 0.0	 0.0	 0.0	 0.0;
	322	 50.0	 -4.96	 16.0	 -10.0	 1.05	 100.0	 1	 50.0	 10.0	 0.0	 0.0	 0.0	 0.0	 0.0	 0.0	 0.0	 0.0	 0.0	 0.0	 0.0;
	322	 50.0	 -4.96	 16.0	 -10.0	 1.05	 100.0	 1	 50.0	 10.0	 0.0	 0.0	 0.0	 0.0	 0.0	 0.0	 0.0	 0.0	 0.0	 0.0	 0.0;
	322	 50.0	 -4.96	 16.0	 -10.0	 1.05	 100.0	 1	 50.0	 10.0	 0.0	 0.0	 0.0	 0.0	 0.0	 0.0	 0.0	 0.0	 0.0	 0.0	 0.0;
	322	 50.0	 -4.96	 16.0	 -10.0	 1.05	 100.0	 1	 50.0	 10.0	 0.0	 0.0	 0.0	 0.0	 0.0	 0.0	 0.0	 0.0	 0.0	 0.0	 0.0;
	322	 50.0	 -4.96	 16.0	 -10.0	 1.05	 100.0	 1	 50.0	 10.0	 0.0	 0.0	 0.0	 0.0	 0.0	 0.0	 0.0	 0.0	 0.0	 0.0	 0.0;
	322	 50.0	 -4.96	 16.0	 -10.0	 1.05	 100.0	 1	 50.0	 10.0	 0.0	 0.0	 0.0	 0.0	 0.0	 0.0	 0.0	 0.0	 0.0	 0.0	 0.0;
	323	 155.0	 31.79	 80.0	 -50.0	 1.05	 100.0	 1	 155.0	 54.3	 0.0	 0.0	 0.0	 0.0	 0.0	 0.0	 0.0	 0.0	 0.0	 0.0	 0.0;
	323	 155.0	 31.79	 80.0	 -50.0	 1.05	 100.0	 1	 155.0	 54.3	 0.0	 0.0	 0.0	 0.0	 0.0	 0.0	 0.0	 0.0	 0.0	 0.0	 0.0;
	323	 350.0	 71.78	 150.0	 -25.0	 1.05	 100.0	 1	 350.0	 140.0	 0.0	 0.0	 0.0	 0.0	 0.0	 0.0	 0.0	 0.0	 0.0	 0.0	 0.0;
];

%% generator cost data
%	2	startup	shutdown	n	c(n-1)	...	c0
mpc.gencost = [
	2	 1500.0	 0.0	 3	   0.000000	 130.000000	 400.684900;
	2	 1500.0	 0.0	 3	   0.000000	 130.000000	 400.684900;
	2	 1500.0	 0.0	 3	   0.014142	  16.081100	 212.307600;
	2	 1500.0	 0.0	 3	   0.014142	  16.081100	 212.307600;
	2	 1500.0	 0.0	 3	   0.000000	 130.000000	 400.684900;
	2	 1500.0	 0.0	 3	   0.000000	 130.000000	 400.684900;
	2	 1500.0	 0.0	 3	   0.014142	  16.081100	 212.307600;
	2	 1500.0	 0.0	 3	   0.014142	  16.081100	 212.307600;
	2	 1500.0	 0.0	 3	   0.052672	  43.661500	 781.521000;
	2	 1500.0	 0.0	 3	   0.052672	  43.661500	 781.521000;
	2	 1500.0	 0.0	 3	   0.052672	  43.661500	 781.521000;
	2	 1500.0	 0.0	 3	   0.007170	  48.580400	 832.757500;
	2	 1500.0	 0.0	 3	   0.007170	  48.580400	 832.757500;
	2	 1500.0	 0.0	 3	   0.007170	  48.580400	 832.757500;
	2	 1500.0	 0.0	 3	   0.000000	   0.000000	   0.000000;
	2	 1500.0	 0.0	 3	   0.328412	  56.564000	  86.385200;
	2	 1500.0	 0.0	 3	   0.328412	  56.564000	  86.385200;
	2	 1500.0	 0.0	 3	   0.328412	  56.564000	  86.385200;
	2	 1500.0	 0.0	 3	   0.328412	  56.564000	  86.385200;
	2	 1500.0	 0.0	 3	   0.328412	  56.564000	  86.385200;
	2	 1500.0	 0.0	 3	   0.008342	  12.388300	 382.239100;
	2	 1500.0	 0.0	 3	   0.008342	  12.388300	 382.239100;
	2	 1500.0	 0.0	 3	   0.000213	   4.423100	 395.374900;
	2	 1500.0	 0.0	 3	   0.000213	   4.423100	 395.374900;
	2	 1500.0	 0.0	 3	   0.000000	   0.001000	   0.001000;
	2	 1500.0	 0.0	 3	   0.000000	   0.001000	   0.001000;
	2	 1500.0	 0.0	 3	   0.000000	   0.001000	   0.001000;
	2	 1500.0	 0.0	 3	   0.000000	   0.001000	   0.001000;
	2	 1500.0	 0.0	 3	   0.000000	   0.001000	   0.001000;
	2	 1500.0	 0.0	 3	   0.000000	   0.001000	   0.001000;
	2	 1500.0	 0.0	 3	   0.008342	  12.388300	 382.239100;
	2	 1500.0	 0.0	 3	   0.008342	  12.388300	 382.239100;
	2	 1500.0	 0.0	 3	   0.004895	  11.849500	 665.109400;
	2	 1500.0	 0.0	 3	   0.000000	 130.000000	 400.684900;
	2	 1500.0	 0.0	 3	   0.000000	 130.000000	 400.684900;
	2	 1500.0	 0.0	 3	   0.014142	  16.081100	 212.307600;
	2	 1500.0	 0.0	 3	   0.014142	  16.081100	 212.307600;
	2	 1500.0	 0.0	 3	   0.000000	 130.000000	 400.684900;
	2	 1500.0	 0.0	 3	   0.000000	 130.000000	 400.684900;
	2	 1500.0	 0.0	 3	   0.014142	  16.081100	 212.307600;
	2	 1500.0	 0.0	 3	   0.014142	  16.081100	 212.307600;
	2	 1500.0	 0.0	 3	   0.052672	  43.661500	 781.521000;
	2	 1500.0	 0.0	 3	   0.052672	  43.661500	 781.521000;
	2	 1500.0	 0.0	 3	   0.052672	  43.661500	 781.521000;
	2	 1500.0	 0.0	 3	   0.007170	  48.580400	 832.757500;
	2	 1500.0	 0.0	 3	   0.007170	  48.580400	 832.757500;
	2	 1500.0	 0.0	 3	   0.007170	  48.580400	 832.757500;
	2	 1500.0	 0.0	 3	   0.000000	   0.000000	   0.000000;
	2	 1500.0	 0.0	 3	   0.328412	  56.564000	  86.385200;
	2	 1500.0	 0.0	 3	   0.328412	  56.564000	  86.385200;
	2	 1500.0	 0.0	 3	   0.328412	  56.564000	  86.385200;
	2	 1500.0	 0.0	 3	   0.328412	  56.564000	  86.385200;
	2	 1500.0	 0.0	 3	   0.328412	  56.564000	  86.385200;
	2	 1500.0	 0.0	 3	   0.008342	  12.388300	 382.239100;
	2	 1500.0	 0.0	 3	   0.008342	  12.388300	 382.239100;
	2	 1500.0	 0.0	 3	   0.000213	   4.423100	 395.374900;
	2	 1500.0	 0.0	 3	   0.000213	   4.423100	 395.374900;
	2	 1500.0	 0.0	 3	   0.000000	   0.001000	   0.001000;
	2	 1500.0	 0.0	 3	   0.000000	   0.001000	   0.001000;
	2	 1500.0	 0.0	 3	   0.000000	   0.001000	   0.001000;
	2	 1500.0	 0.0	 3	   0.000000	   0.001000	   0.001000;
	2	 1500.0	 0.0	 3	   0.000000	   0.001000	   0.001000;
	2	 1500.0	 0.0	 3	   0.000000	   0.001000	   0.001000;
	2	 1500.0	 0.0	 3	   0.008342	  12.388300	 382.239100;
	2	 1500.0	 0.0	 3	   0.008342	  12.388300	 382.239100;
	2	 1500.0	 0.0	 3	   0.004895	  11.849500	 665.109400;
	2	 1500.0	 0.0	 3	   0.000000	 130.000000	 400.684900;
	2	 1500.0	 0.0	 3	   0.000000	 130.000000	 400.684900;
	2	 1500.0	 0.0	 3	   0.014142	  16.081100	 212.307600;
	2	 1500.0	 0.0	 3	   0.014142	  16.081100	 212.307600;
	2	 1500.0	 0.0	 3	   0.000000	 130.000000	 400.684900;
	2	 1500.0	 0.0	 3	   0.000000	 130.000000	 400.684900;
	2	 1500.0	 0.0	 3	   0.014142	  16.081100	 212.307600;
	2	 1500.0	 0.0	 3	   0.014142	  16.081100	 212.307600;
	2	 1500.0	 0.0	 3	   0.052672	  43.661500	 781.521000;
	2	 1500.0	 0.0	 3	   0.052672	  43.661500	 781.521000;
	2	 1500.0	 0.0	 3	   0.052672	  43.661500	 781.521000;
	2	 1500.0	 0.0	 3	   0.007170	  48.580400	 832.757500;
	2	 1500.0	 0.0	 3	   0.007170	  48.580400	 832.757500;
	2	 1500.0	 0.0	 3	   0.007170	  48.580400	 832.757500;
	2	 1500.0	 0.0	 3	   0.000000	   0.000000	   0.000000;
	2	 1500.0	 0.0	 3	   0.328412	  56.564000	  86.385200;
	2	 1500.0	 0.0	 3	   0.328412	  56.564000	  86.385200;
	2	 1500.0	 0.0	 3	   0.328412	  56.564000	  86.385200;
	2	 1500.0	 0.0	 3	   0.328412	  56.564000	  86.385200;
	2	 1500.0	 0.0	 3	   0.328412	  56.564000	  86.385200;
	2	 1500.0	 0.0	 3	   0.008342	  12.388300	 382.239100;
	2	 1500.0	 0.0	 3	   0.008342	  12.388300	 382.239100;
	2	 1500.0	 0.0	 3	   0.000213	   4.423100	 395.374900;
	2	 1500.0	 0.0	 3	   0.000213	   4.423100	 395.374900;
	2	 1500.0	 0.0	 3	   0.000000	   0.001000	   0.001000;
	2	 1500.0	 0.0	 3	   0.000000	   0.001000	   0.001000;
	2	 1500.0	 0.0	 3	   0.000000	   0.001000	   0.001000;
	2	 1500.0	 0.0	 3	   0.000000	   0.001000	   0.001000;
	2	 1500.0	 0.0	 3	   0.000000	   0.001000	   0.001000;
	2	 1500.0	 0.0	 3	   0.000000	   0.001000	   0.001000;
	2	 1500.0	 0.0	 3	   0.008342	  12.388300	 382.239100;
	2	 1500.0	 0.0	 3	   0.008342	  12.388300	 382.239100;
	2	 1500.0	 0.0	 3	   0.004895	  11.849500	 665.109400;
];

%% branch data
%	fbus	tbus	r	x	b	rateA	rateB	rateC	ratio	angle	status	angmin	angmax
mpc.branch = [
	101	 102	 0.003	 0.014	 0.461	 175.0	 193.0	 200.0	 1.0	 0.0	 1	 -30.0	 30.0;
	101	 103	 0.055	 0.211	 0.057	 175.0	 208.0	 220.0	 1.0	 0.0	 1	 -30.0	 30.0;
	101	 105	 0.022	 0.085	 0.023	 175.0	 208.0	 220.0	 1.0	 0.0	 1	 -30.0	 30.0;
	102	 104	 0.033	 0.127	 0.034	 175.0	 208.0	 220.0	 1.0	 0.0	 1	 -30.0	 30.0;
	102	 106	 0.05	 0.192	 0.052	 175.0	 208.0	 220.0	 1.0	 0.0	 1	 -30.0	 30.0;
	103	 109	 0.031	 0.119	 0.032	 175.0	 208.0	 220.0	 1.0	 0.0	 1	 -30.0	 30.0;
	103	 124	 0.002	 0.084	 0.0	 400.0	 510.0	 600.0	 1.015	 0.0	 1	 -30.0	 30.0;
	104	 109	 0.027	 0.104	 0.028	 175.0	 208.0	 220.0	 1.0	 0.0	 1	 -30.0	 30.0;
	105	 110	 0.023	 0.088	 0.024	 175.0	 208.0	 220.0	 1.0	 0.0	 1	 -30.0	 30.0;
	106	 110	 0.014	 0.061	 2.459	 175.0	 193.0	 200.0	 1.0	 0.0	 1	 -30.0	 30.0;
	107	 108	 0.016	 0.061	 0.017	 175.0	 208.0	 220.0	 1.0	 0.0	 1	 -30.0	 30.0;
	107	 203	 0.042	 0.161	 0.044	 175.0	 208.0	 220.0	 1.0	 0.0	 1	 -30.0	 30.0;
	108	 109	 0.043	 0.165	 0.045	 175.0	 208.0	 220.0	 1.0	 0.0	 1	 -30.0	 30.0;
	108	 110	 0.043	 0.165	 0.045	 175.0	 208.0	 220.0	 1.0	 0.0	 1	 -30.0	 30.0;
	109	 111	 0.002	 0.084	 0.0	 400.0	 510.0	 600.0	 1.03	 0.0	 1	 -30.0	 30.0;
	109	 112	 0.002	 0.084	 0.0	 400.0	 510.0	 600.0	 1.03	 0.0	 1	 -30.0	 30.0;
	110	 111	 0.002	 0.084	 0.0	 400.0	 510.0	 600.0	 1.015	 0.0	 1	 -30.0	 30.0;
	110	 112	 0.002	 0.084	 0.0	 400.0	 510.0	 600.0	 1.015	 0.0	 1	 -30.0	 30.0;
	111	 113	 0.006	 0.048	 0.1	 500.0	 600.0	 625.0	 1.0	 0.0	 1	 -30.0	 30.0;
	111	 114	 0.005	 0.042	 0.088	 500.0	 600.0	 625.0	 1.0	 0.0	 1	 -30.0	 30.0;
	112	 113	 0.006	 0.048	 0.1	 500.0	 600.0	 625.0	 1.0	 0.0	 1	 -30.0	 30.0;
	112	 123	 0.012	 0.097	 0.203	 500.0	 600.0	 625.0	 1.0	 0.0	 1	 -30.0	 30.0;
	113	 123	 0.011	 0.087	 0.182	 500.0	 600.0	 625.0	 1.0	 0.0	 1	 -30.0	 30.0;
	113	 215	 0.01	 0.075	 0.158	 500.0	 600.0	 625.0	 1.0	 0.0	 1	 -30.0	 30.0;
	114	 116	 0.005	 0.059	 0.082	 500.0	 600.0	 625.0	 1.0	 0.0	 1	 -30.0	 30.0;
	115	 116	 0.002	 0.017	 0.036	 500.0	 600.0	 625.0	 1.0	 0.0	 1	 -30.0	 30.0;
	115	 121	 0.006	 0.049	 0.103	 500.0	 600.0	 625.0	 1.0	 0.0	 1	 -30.0	 30.0;
	115	 121	 0.006	 0.049	 0.103	 500.0	 600.0	 625.0	 1.0	 0.0	 1	 -30.0	 30.0;
	115	 124	 0.007	 0.052	 0.109	 500.0	 600.0	 625.0	 1.0	 0.0	 1	 -30.0	 30.0;
	116	 117	 0.003	 0.026	 0.055	 500.0	 600.0	 625.0	 1.0	 0.0	 1	 -30.0	 30.0;
	116	 119	 0.003	 0.023	 0.049	 500.0	 600.0	 625.0	 1.0	 0.0	 1	 -30.0	 30.0;
	117	 118	 0.002	 0.014	 0.03	 500.0	 600.0	 625.0	 1.0	 0.0	 1	 -30.0	 30.0;
	117	 122	 0.014	 0.105	 0.221	 500.0	 600.0	 625.0	 1.0	 0.0	 1	 -30.0	 30.0;
	118	 121	 0.003	 0.026	 0.055	 500.0	 600.0	 625.0	 1.0	 0.0	 1	 -30.0	 30.0;
	118	 121	 0.003	 0.026	 0.055	 500.0	 600.0	 625.0	 1.0	 0.0	 1	 -30.0	 30.0;
	119	 120	 0.005	 0.04	 0.083	 500.0	 600.0	 625.0	 1.0	 0.0	 1	 -30.0	 30.0;
	119	 120	 0.005	 0.04	 0.083	 500.0	 600.0	 625.0	 1.0	 0.0	 1	 -30.0	 30.0;
	120	 123	 0.003	 0.022	 0.046	 500.0	 600.0	 625.0	 1.0	 0.0	 1	 -30.0	 30.0;
	120	 123	 0.003	 0.022	 0.046	 500.0	 600.0	 625.0	 1.0	 0.0	 1	 -30.0	 30.0;
	121	 122	 0.009	 0.068	 0.142	 500.0	 600.0	 625.0	 1.0	 0.0	 1	 -30.0	 30.0;
	123	 217	 0.01	 0.074	 0.155	 500.0	 600.0	 625.0	 1.0	 0.0	 1	 -30.0	 30.0;
	201	 202	 0.003	 0.014	 0.461	 175.0	 193.0	 200.0	 1.0	 0.0	 1	 -30.0	 30.0;
	201	 203	 0.055	 0.211	 0.057	 175.0	 208.0	 220.0	 1.0	 0.0	 1	 -30.0	 30.0;
	201	 205	 0.022	 0.085	 0.023	 175.0	 208.0	 220.0	 1.0	 0.0	 1	 -30.0	 30.0;
	202	 204	 0.033	 0.127	 0.034	 175.0	 208.0	 220.0	 1.0	 0.0	 1	 -30.0	 30.0;
	202	 206	 0.05	 0.192	 0.052	 175.0	 208.0	 220.0	 1.0	 0.0	 1	 -30.0	 30.0;
	203	 209	 0.031	 0.119	 0.032	 175.0	 208.0	 220.0	 1.0	 0.0	 1	 -30.0	 30.0;
	203	 224	 0.002	 0.084	 0.0	 400.0	 510.0	 600.0	 1.015	 0.0	 1	 -30.0	 30.0;
	204	 209	 0.027	 0.104	 0.028	 175.0	 208.0	 220.0	 1.0	 0.0	 1	 -30.0	 30.0;
	205	 210	 0.023	 0.088	 0.024	 175.0	 208.0	 220.0	 1.0	 0.0	 1	 -30.0	 30.0;
	206	 210	 0.014	 0.061	 2.459	 175.0	 193.0	 200.0	 1.0	 0.0	 1	 -30.0	 30.0;
	207	 208	 0.016	 0.061	 0.017	 175.0	 208.0	 220.0	 1.0	 0.0	 1	 -30.0	 30.0;
	208	 209	 0.043	 0.165	 0.045	 175.0	 208.0	 220.0	 1.0	 0.0	 1	 -30.0	 30.0;
	208	 210	 0.043	 0.165	 0.045	 175.0	 208.0	 220.0	 1.0	 0.0	 1	 -30.0	 30.0;
	209	 211	 0.002	 0.084	 0.0	 400.0	 510.0	 600.0	 1.03	 0.0	 1	 -30.0	 30.0;
	209	 212	 0.002	 0.084	 0.0	 400.0	 510.0	 600.0	 1.03	 0.0	 1	 -30.0	 30.0;
	210	 211	 0.002	 0.084	 0.0	 400.0	 510.0	 600.0	 1.015	 0.0	 1	 -30.0	 30.0;
	210	 212	 0.002	 0.084	 0.0	 400.0	 510.0	 600.0	 1.015	 0.0	 1	 -30.0	 30.0;
	211	 213	 0.006	 0.048	 0.1	 500.0	 600.0	 625.0	 1.0	 0.0	 1	 -30.0	 30.0;
	211	 214	 0.005	 0.042	 0.088	 500.0	 600.0	 625.0	 1.0	 0.0	 1	 -30.0	 30.0;
	212	 213	 0.006	 0.048	 0.1	 500.0	 600.0	 625.0	 1.0	 0.0	 1	 -30.0	 30.0;
	212	 223	 0.012	 0.097	 0.203	 500.0	 600.0	 625.0	 1.0	 0.0	 1	 -30.0	 30.0;
	213	 223	 0.011	 0.087	 0.182	 500.0	 600.0	 625.0	 1.0	 0.0	 1	 -30.0	 30.0;
	214	 216	 0.005	 0.059	 0.082	 500.0	 600.0	 625.0	 1.0	 0.0	 1	 -30.0	 30.0;
	215	 216	 0.002	 0.017	 0.036	 500.0	 600.0	 625.0	 1.0	 0.0	 1	 -30.0	 30.0;
	215	 221	 0.006	 0.049	 0.103	 500.0	 600.0	 625.0	 1.0	 0.0	 1	 -30.0	 30.0;
	215	 221	 0.006	 0.049	 0.103	 500.0	 600.0	 625.0	 1.0	 0.0	 1	 -30.0	 30.0;
	215	 224	 0.007	 0.052	 0.109	 500.0	 600.0	 625.0	 1.0	 0.0	 1	 -30.0	 30.0;
	216	 217	 0.003	 0.026	 0.055	 500.0	 600.0	 625.0	 1.0	 0.0	 1	 -30.0	 30.0;
	216	 219	 0.003	 0.023	 0.049	 500.0	 600.0	 625.0	 1.0	 0.0	 1	 -30.0	 30.0;
	217	 218	 0.002	 0.014	 0.03	 500.0	 600.0	 625.0	 1.0	 0.0	 1	 -30.0	 30.0;
	217	 222	 0.014	 0.105	 0.221	 500.0	 600.0	 625.0	 1.0	 0.0	 1	 -30.0	 30.0;
	218	 221	 0.003	 0.026	 0.055	 500.0	 600.0	 625.0	 1.0	 0.0	 1	 -30.0	 30.0;
	218	 221	 0.003	 0.026	 0.055	 500.0	 600.0	 625.0	 1.0	 0.0	 1	 -30.0	 30.0;
	219	 220	 0.005	 0.04	 0.083	 500.0	 600.0	 625.0	 1.0	 0.0	 1	 -30.0	 30.0;
	219	 220	 0.005	 0.04	 0.083	 500.0	 600.0	 625.0	 1.0	 0.0	 1	 -30.0	 30.0;
	220	 223	 0.003	 0.022	 0.046	 500.0	 600.0	 625.0	 1.0	 0.0	 1	 -30.0	 30.0;
	220	 223	 0.003	 0.022	 0.046	 500.0	 600.0	 625.0	 1.0	 0.0	 1	 -30.0	 30.0;
	221	 222	 0.009	 0.068	 0.142	 500.0	 600.0	 625.0	 1.0	 0.0	 1	 -30.0	 30.0;
	301	 302	 0.003	 0.014	 0.461	 175.0	 193.0	 200.0	 1.0	 0.0	 1	 -30.0	 30.0;
	301	 303	 0.055	 0.211	 0.057	 175.0	 208.0	 220.0	 1.0	 0.0	 1	 -30.0	 30.0;
	301	 305	 0.022	 0.085	 0.023	 175.0	 208.0	 220.0	 1.0	 0.0	 1	 -30.0	 30.0;
	302	 304	 0.033	 0.127	 0.034	 175.0	 208.0	 220.0	 1.0	 0.0	 1	 -30.0	 30.0;
	302	 306	 0.05	 0.192	 0.052	 175.0	 208.0	 220.0	 1.0	 0.0	 1	 -30.0	 30.0;
	303	 309	 0.031	 0.119	 0.032	 175.0	 208.0	 220.0	 1.0	 0.0	 1	 -30.0	 30.0;
	303	 324	 0.002	 0.084	 0.0	 400.0	 510.0	 600.0	 1.015	 0.0	 1	 -30.0	 30.0;
	304	 309	 0.027	 0.104	 0.028	 175.0	 208.0	 220.0	 1.0	 0.0	 1	 -30.0	 30.0;
	305	 310	 0.023	 0.088	 0.024	 175.0	 208.0	 220.0	 1.0	 0.0	 1	 -30.0	 30.0;
	306	 310	 0.014	 0.061	 2.459	 175.0	 193.0	 200.0	 1.0	 0.0	 1	 -30.0	 30.0;
	307	 308	 0.016	 0.061	 0.017	 175.0	 208.0	 220.0	 1.0	 0.0	 1	 -30.0	 30.0;
	308	 309	 0.043	 0.165	 0.045	 175.0	 208.0	 220.0	 1.0	 0.0	 1	 -30.0	 30.0;
	308	 310	 0.043	 0.165	 0.045	 175.0	 208.0	 220.0	 1.0	 0.0	 1	 -30.0	 30.0;
	309	 311	 0.002	 0.084	 0.0	 400.0	 510.0	 600.0	 1.03	 0.0	 1	 -30.0	 30.0;
	309	 312	 0.002	 0.084	 0.0	 400.0	 510.0	 600.0	 1.03	 0.0	 1	 -30.0	 30.0;
	310	 311	 0.002	 0.084	 0.0	 400.0	 510.0	 600.0	 1.015	 0.0	 1	 -30.0	 30.0;
	310	 312	 0.002	 0.084	 0.0	 400.0	 510.0	 600.0	 1.015	 0.0	 1	 -30.0	 30.0;
	311	 313	 0.006	 0.048	 0.1	 500.0	 600.0	 625.0	 1.0	 0.0	 1	 -30.0	 30.0;
	311	 314	 0.005	 0.042	 0.088	 500.0	 600.0	 625.0	 1.0	 0.0	 1	 -30.0	 30.0;
	312	 313	 0.006	 0.048	 0.1	 500.0	 600.0	 625.0	 1.0	 0.0	 1	 -30.0	 30.0;
	312	 323	 0.012	 0.097	 0.203	 500.0	 600.0	 625.0	 1.0	 0.0	 1	 -30.0	 30.0;
	313	 323	 0.011	 0.087	 0.182	 500.0	 600.0	 625.0	 1.0	 0.0	 1	 -30.0	 30.0;
	314	 316	 0.005	 0.059	 0.082	 500.0	 600.0	 625.0	 1.0	 0.0	 1	 -30.0	 30.0;
	315	 316	 0.002	 0.017	 0.036	 500.0	 600.0	 625.0	 1.0	 0.0	 1	 -30.0	 30.0;
	315	 321	 0.006	 0.049	 0.103	 500.0	 600.0	 625.0	 1.0	 0.0	 1	 -30.0	 30.0;
	315	 321	 0.006	 0.049	 0.103	 500.0	 600.0	 625.0	 1.0	 0.0	 1	 -30.0	 30.0;
	315	 324	 0.007	 0.052	 0.109	 500.0	 600.0	 625.0	 1.0	 0.0	 1	 -30.0	 30.0;
	316	 317	 0.003	 0.026	 0.055	 500.0	 600.0	 625.0	 1.0	 0.0	 1	 -30.0	 30.0;
	316	 319	 0.003	 0.023	 0.049	 500.0	 600.0	 625.0	 1.0	 0.0	 1	 -30.0	 30.0;
	317	 318	 0.002	 0.014	 0.03	 500.0	 600.0	 625.0	 1.0	 0.0	 1	 -30.0	 30.0;
	317	 322	 0.014	 0.105	 0.221	 500.0	 600.0	 625.0	 1.0	 0.0	 1	 -30.0	 30.0;
	318	 321	 0.003	 0.026	 0.055	 500.0	 600.0	 625.0	 1.0	 0.0	 1	 -30.0	 30.0;
	318	 321	 0.003	 0.026	 0.055	 500.0	 600.0	 625.0	 1.0	 0.0	 1	 -30.0	 30.0;
	319	 320	 0.005	 0.04	 0.083	 500.0	 600.0	 625.0	 1.0	 0.0	 1	 -30.0	 30.0;
	319	 320	 0.005	 0.04	 0.083	 500.0	 600.0	 625.0	 1.0	 0.0	 1	 -30.0	 30.0;
	320	 323	 0.003	 0.022	 0.046	 500.0	 600.0	 625.0	 1.0	 0.0	 1	 -30.0	 30.0;
	320	 323	 0.003	 0.022	 0.046	 500.0	 600.0	 625.0	 1.0	 0.0	 1	 -30.0	 30.0;
	321	 322	 0.009	 0.068	 0.142	 500.0	 600.0	 625.0	 1.0	 0.0	 1	 -30.0	 30.0;
	325	 121	 0.012	 0.097	 0.203	 500.0	 600.0	 625.0	 1.0	 0.0	 1	 -30.0	 30.0;
	318	 223	 0.013	 0.104	 0.218	 500.0	 600.0	 625.0	 1.0	 0.0	 1	 -30.0	 30.0;
	323	 325	 0.0	 0.009	 0.0	 722.0	 893.0	 893.0	 1.0	 0.0	 1	 -30.0	 30.0;
];

% INFO    : === Translation Options ===
% INFO    : Phase Angle Bound:           30.0 (deg.)
% INFO    : 
% INFO    : === Writing Matpower Case File Notes ===
